%nprocshared=24
%mem=40GB
%chk=sTRP_cage.chk
#p b3lyp/6-31+g(d,p) scf=restart geom=connectivity polar

Generated by trjconv : Protein t= 928.30005

-2 1
 N                 -9.29734100    2.41518900    0.50504400
 H                -10.04162200    3.01450200    0.88058000
 H                 -7.18128300    1.44269900   -1.46147100
 C                 -9.37310600    1.08862700    1.06517300
 H                -10.05851900    0.99297100    1.93221000
 C                 -9.83760700   -0.02846000    0.00024700
 H                -10.80504200    0.29987100   -0.39200400
 H                 -9.09867200    0.01324800   -0.80294400
 C                 -9.90175100   -1.40839000    0.59121400
 O                 -8.86146000   -2.08226200    0.92246300
 N                -11.14687300   -1.91304800    0.88144600
 H                -11.98923200   -1.41775000    0.62363400
 H                -11.22076700   -2.81454700    1.33713800
 C                 -7.95966800    0.74186900    1.54113300
 O                 -6.99740200    0.50974700    0.75309900
 N                 -7.73642700    0.70330700    2.90236800
 H                 -8.49262600    0.98040100    3.51817400
 C                 -6.37581000    0.64234700    3.46672300
 H                 -5.79714500    1.51126100    3.13167400
 C                 -6.48816200    0.64856200    5.01642800
 H                 -7.05820600    1.54821900    5.30099500
 H                 -7.08520800   -0.22357500    5.32339800
 C                 -5.15344400    0.65116000    5.80531300
 H                 -4.58192400   -0.24348500    5.52125800
 C                 -4.28025600    1.88613300    5.48397100
 H                 -3.38125400    1.89205400    6.11400500
 H                 -3.95340200    1.87917300    4.43847500
 H                 -4.83016900    2.81953000    5.67415000
 C                 -5.45472900    0.57165400    7.32057600
 H                 -6.04986800   -0.31856600    7.56650000
 H                 -4.52355800    0.52596600    7.89977200
 H                 -6.01451300    1.45609900    7.65758800
 C                 -5.58196800   -0.57915700    2.96048500
 O                 -4.31948300   -0.52377000    2.88333600
 N                 -6.28454900   -1.71387800    2.66669800
 H                 -7.29396800   -1.64750700    2.54590800
 C                 -5.61608700   -2.91857400    2.14369500
 H                 -4.66653900   -3.03664100    2.67224100
 C                 -6.53828500   -4.14457000    2.40449800
 H                 -6.75852700   -4.13786400    3.48109900
 H                 -7.48896500   -3.98972100    1.88125900
 C                 -5.92838600   -5.47936400    2.01138100
 C                 -4.86949500   -6.04110700    2.76267800
 H                 -4.48523200   -5.50755400    3.63042500
 C                 -6.41137000   -6.20208900    0.90270000
 H                 -7.22801200   -5.79344700    0.31164400
 C                 -4.30568900   -7.27749300    2.41969900
 H                 -3.49439300   -7.71336000    2.99456000
 C                 -5.85866600   -7.44542800    0.54393300
 H                 -6.24576300   -7.98646500   -0.31841800
 C                 -4.80224600   -7.97783700    1.30448700
 O                 -4.19024000   -9.20275700    1.00285200
 H                 -4.59244300   -9.63449200    0.22162300
 C                 -5.22404100   -2.75946600    0.65264800
 O                 -4.01343800   -2.90257800    0.28166600
 N                 -6.21668000   -2.45141400   -0.21896700
 H                 -7.16415900   -2.24806200    0.13149900
 C                 -5.92741100   -2.27922100   -1.65585500
 H                 -5.38595100   -3.16400800   -2.01336000
 C                 -7.25142100   -2.14366800   -2.47060100
 H                 -7.86447300   -1.37163000   -1.98297200
 C                 -8.03151800   -3.48875200   -2.42576300
 H                 -7.47848700   -4.23262900   -3.02092800
 H                 -8.05506500   -3.86195100   -1.39299900
 C                 -6.97081600   -1.68710100   -3.92082600
 H                 -7.89821400   -1.68810300   -4.50451700
 H                 -6.56454100   -0.67020200   -3.95040100
 H                 -6.25600500   -2.35943900   -4.41380500
 C                 -9.48370200   -3.39216700   -2.94111400
 H                 -9.99123000   -4.36187800   -2.85217700
 H                -10.05809600   -2.65891900   -2.35913900
 H                 -9.52690100   -3.09234100   -3.99467400
 C                 -4.94866300   -1.11129100   -1.89691800
 O                 -4.01664900   -1.24925900   -2.75325100
 N                 -5.11572600    0.01696100   -1.17378500
 H                 -5.88834300    0.10543700   -0.49999500
 C                 -4.27696700    1.20386700   -1.41384500
 H                 -4.24377800    1.39533000   -2.49156600
 C                 -4.84933700    2.45854300   -0.69181800
 H                 -5.23832200    2.14899600    0.28514800
 H                 -4.01426900    3.14728900   -0.50750600
 C                 -5.94956200    3.23223200   -1.46377500
 H                 -6.38229700    3.96864400   -0.77764400
 H                 -5.48901900    3.79250200   -2.29179500
 C                 -7.13118100    2.38416700   -2.02034000
 O                 -8.39635400    3.05775100   -1.85499300
 H                 -8.78998500    2.80815800   -0.88781000
 N                 -6.86275000    2.04527500   -3.43073200
 H                 -7.69640500    1.64190900   -3.86118900
 H                 -6.52627200    2.83879800   -3.98699300
 C                 -2.82175700    0.94905000   -0.98567600
 O                 -1.87295200    1.61648600   -1.50335700
 N                 -2.60051200    0.00775000   -0.02017000
 H                 -3.38846900   -0.46975800    0.40972200
 C                 -1.24259900   -0.39949900    0.35868100
 H                 -0.60547900    0.48740700    0.33179800
 C                 -1.23358100   -1.00914100    1.78737500
 H                 -2.01190600   -0.49798900    2.36772400
 H                 -1.55586400   -2.05963000    1.74100400
 C                  0.09380300   -0.86345700    2.49584400
 C                  1.32691300   -0.51398400    1.95689500
 H                  1.58708800   -0.32170300    0.92613000
 C                  0.29733500   -0.97877700    3.92916400
 N                  2.28403300   -0.40441500    2.96683000
 H                  3.24765500   -0.08443300    2.80703600
 C                  1.67696300   -0.67480900    4.18946400
 C                 -0.56029200   -1.28117100    5.01478300
 H                 -1.61048200   -1.50528600    4.84181300
 C                  2.20501000   -0.66561900    5.49727100
 H                  3.25020300   -0.42807600    5.68307300
 C                 -0.03573600   -1.27651700    6.31504300
 H                 -0.68171400   -1.50551200    7.15929900
 C                  1.33354800   -0.97053800    6.55401100
 H                  1.70883200   -0.97049800    7.57483800
 C                 -0.63783700   -1.34216500   -0.70807300
 O                  0.56650000   -1.17998700   -1.10163800
 N                 -1.43283500   -2.31596800   -1.21769100
 H                 -2.38531100   -2.44547900   -0.86155000
 C                 -0.95967200   -3.14734000   -2.34017300
 H                  0.00867600   -3.58542200   -2.07917900
 C                 -1.95994400   -4.27607300   -2.68389800
 H                 -2.93424500   -3.82576700   -2.91684600
 H                 -1.59531100   -4.75968000   -3.60108700
 C                 -2.13849600   -5.35980600   -1.58721700
 H                 -2.54763100   -4.88258700   -0.68594700
 C                 -3.16830100   -6.40497000   -2.07732000
 H                 -3.34097200   -7.16806900   -1.30856000
 H                 -4.13349400   -5.93464200   -2.30785300
 H                 -2.80934800   -6.90971400   -2.98626000
 C                 -0.80859400   -6.05514600   -1.21430400
 H                 -0.32999400   -6.49525000   -2.10105200
 H                 -0.09338200   -5.36046500   -0.75522700
 H                 -0.98918000   -6.86294600   -0.49365500
 C                 -0.65478300   -2.29553700   -3.59353800
 O                  0.32040700   -2.62900400   -4.34391000
 N                 -1.43992100   -1.22042400   -3.83132700
 H                 -2.31026400   -1.11512900   -3.29066300
 C                 -1.30993900   -0.36896700   -5.03038500
 H                 -1.51415000   -0.96786100   -5.92840800
 C                 -2.36583400    0.76930300   -4.93944200
 H                 -3.31721800    0.29560900   -4.66475400
 H                 -2.09722400    1.43711800   -4.11124700
 C                 -2.57580900    1.55316700   -6.25442400
 H                 -1.70542100    2.18734800   -6.47260300
 H                 -2.64375900    0.83951500   -7.08787800
 C                 -3.86940500    2.40462100   -6.23065900
 H                 -4.05810800    2.79175000   -7.24492600
 H                 -4.72724300    1.77285800   -5.96264300
 C                 -3.83105100    3.59503600   -5.25079900
 H                 -3.64160100    3.23252700   -4.23329700
 H                 -2.98062700    4.25177200   -5.52707100
 N                 -5.13012600    4.29772300   -5.23938000
 H                 -5.21290900    5.04786300   -4.55718400
 H                 -5.46589500    4.57684600   -6.15888000
 C                  0.11156500    0.16550200   -5.27167000
 O                  0.48048600    0.40597600   -6.45364100
 N                  0.95991200    0.37708000   -4.19671400
 H                  0.63812500    0.23836700   -3.24056800
 C                  2.36805200    0.67296600   -4.47476500
 H                  2.43158100    0.58414800   -5.57058500
 C                  2.85249000    2.12502900   -4.19292500
 H                  3.66903900    2.35211100   -4.88249000
 H                  2.01170600    2.78676700   -4.43339500
 C                  3.36667600    2.49261300   -2.81099100
 O                  4.51033900    2.97542500   -2.62494800
 O                  2.47176200    2.33147900   -1.81128200
 C                  3.33700700   -0.39981800   -3.93666000
 O                  4.53349700   -0.08977700   -3.65513900
 N                  2.87140300   -1.67651100   -3.89227500
 H                  1.89982100   -1.89194300   -4.17098500
 C                  3.74459800   -2.82268600   -3.64663300
 H                  3.51474500   -3.61269400   -4.36993400
 H                  4.78561900   -2.52270400   -3.79653600
 C                  3.65678100   -3.47027300   -2.25659400
 O                  4.33955800   -4.52178200   -2.04076600
 N                  2.84714600   -2.89753100   -1.33825600
 H                  2.25090000   -2.10348100   -1.58394300
 C                  2.68782100   -3.42436400    0.00885800
 H                  1.82846200   -2.92083300    0.45995500
 H                  2.47537000   -4.50275200   -0.02506000
 C                  3.93034800   -3.23353300    0.89574200
 O                  5.01163600   -2.73783500    0.45469800
 N                  3.83715500   -3.72013200    2.16977100
 C                  5.01593200   -3.69636900    3.08170300
 H                  5.30286400   -2.66305300    3.30416900
 C                  4.51107400   -4.44504500    4.34702600
 H                  4.75156700   -5.51232700    4.26810800
 H                  4.98661400   -4.05866800    5.25230500
 C                  2.97763200   -4.23189200    4.33701700
 H                  2.44606100   -5.01832300    4.88181400
 H                  2.72012400   -3.27207500    4.79348400
 C                  2.59883200   -4.21732200    2.83865800
 H                  1.75549500   -3.54887800    2.64126200
 H                  2.34588000   -5.22264100    2.47335500
 C                  6.25405700   -4.36505200    2.45626100
 O                  7.41881500   -3.93352600    2.70466600
 N                  5.97938000   -5.41989700    1.64533800
 H                  5.00662800   -5.60733000    1.39401800
 C                  6.91869500   -6.16727600    0.81075400
 H                  7.59169200   -6.78292600    1.41698600
 C                  6.03972600   -7.11725000   -0.09184300
 H                  6.57471000   -7.32940200   -1.02421200
 H                  5.86907200   -8.05655800    0.44005800
 O                  4.72130300   -6.55893600   -0.32372300
 H                  4.66715600   -5.86049500   -1.03770300
 C                  7.85290200   -5.31287400   -0.06030000
 O                  8.91826700   -5.82570400   -0.49936000
 N                  7.45789900   -4.03634400   -0.36096400
 H                  6.55188600   -3.66815000   -0.05058100
 C                  8.28897300   -3.17872000   -1.19972900
 H                  9.15099700   -3.78625500   -1.51138100
 C                  7.46629100   -2.79171300   -2.45632300
 H                  6.97574700   -3.70106400   -2.82253300
 H                  6.70023400   -2.05288400   -2.20776600
 O                  8.24821100   -2.17809800   -3.52892700
 H                  9.03776200   -2.70679800   -3.76010900
 C                  8.87117400   -1.97418500   -0.43044400
 O                  9.51757800   -1.07073900   -1.04241000
 N                  8.69958000   -1.95748900    0.92196700
 H                  8.24843600   -2.74678900    1.39564700
 C                  9.38032600   -0.96749400    1.76167500
 H                  9.42076100   -1.36318900    2.78249700
 H                 10.40593000   -0.81508900    1.41206100
 C                  8.76019900    0.43912400    1.82866100
 O                  9.49234400    1.42031000    2.13885800
 N                  7.41777200    0.56741000    1.58660200
 H                  6.84069600   -0.24541400    1.38441800
 C                  6.76787100    1.88187300    1.61369200
 H                  7.42493100    2.53672300    2.19648500
 C                  6.59223000    2.47132500    0.17381900
 H                  6.30822100    1.64248900   -0.48395800
 H                  5.75073900    3.17192900    0.14068100
 C                  7.87735900    3.15230100   -0.33827200
 H                  8.11461700    4.02706600    0.28544000
 H                  8.72336100    2.46673200   -0.22746300
 C                  7.75112500    3.64257500   -1.80313700
 H                  7.00979000    4.44572300   -1.86321800
 H                  8.70690100    4.06723800   -2.14243300
 N                  7.28395800    2.60300000   -2.74294700
 H                  6.29092200    2.66859400   -2.99552800
 C                  7.91070100    1.41695900   -2.93076600
 N                  9.21491100    1.24823300   -2.57455300
 H                  9.76433200    2.04026000   -2.27586300
 H                  9.52021300    0.31994900   -2.26249600
 N                  7.25028300    0.38009400   -3.46912200
 H                  6.22878800    0.37081600   -3.56410300
 H                  7.75449300   -0.49404500   -3.66895800
 C                  5.38607600    1.79344400    2.27128600
 O                  4.77679400    0.68306400    2.36218400
 N                  4.83414700    2.96979400    2.67971400
 C                  3.40340400    3.08766900    3.03278200
 H                  3.10178400    2.26300700    3.68569200
 C                  3.33703600    4.46921200    3.75220100
 H                  2.35905000    4.94684300    3.68152100
 H                  3.58819600    4.33230100    4.81109700
 C                  4.42106700    5.30060600    3.03171400
 H                  4.01391600    5.69905200    2.09662500
 H                  4.77767400    6.13872300    3.63770900
 C                  5.54363500    4.28349800    2.74056000
 H                  6.28948500    4.26122100    3.54635300
 H                  6.05557400    4.50654100    1.80157600
 C                  2.52648900    3.06714500    1.75233500
 O                  3.07896300    3.08528500    0.60038900
 N                  1.18496500    3.10225800    1.90453700
 C                  0.30748300    3.46390600    0.76113800
 H                  0.42084800    2.76136800   -0.06823900
 C                 -1.12975400    3.41846000    1.36832600
 H                 -1.78977500    4.15804500    0.90743600
 H                 -1.56157100    2.42833700    1.20158800
 C                 -0.91270500    3.67947500    2.87723600
 H                 -0.81744000    4.75250900    3.07508700
 H                 -1.73290200    3.28683200    3.48533300
 C                  0.41520000    2.95725200    3.17824900
 H                  0.25720900    1.89109200    3.37936500
 H                  0.94582900    3.39780100    4.02336700
 C                  0.63977600    4.90054900    0.30803700
 O                  1.21626700    5.71390400    1.10731600
 N                  0.21835600    5.30324900   -0.91167700
 C                  0.29442200    6.74584200   -1.27304900
 H                  1.34022100    7.07437100   -1.26152600
 C                 -0.32288300    6.80181700   -2.69681900
 H                 -0.86987000    7.73379600   -2.86695200
 H                  0.47979600    6.73722300   -3.44191200
 C                 -1.23510800    5.55157700   -2.76946400
 H                 -2.19303900    5.76441600   -2.28497700
 H                 -1.42370300    5.22755200   -3.79710300
 C                 -0.46580200    4.48849400   -1.96082000
 H                  0.29035200    3.97623600   -2.57029500
 H                 -1.11553000    3.72446600   -1.53244300
 C                 -0.51068100    7.55310100   -0.22964500
 O                 -1.70025200    7.25736100    0.05041000
 N                  0.17329200    8.58321800    0.36875400
 H                  1.12403300    8.78284500    0.07897200
 C                 -0.32906000    9.26728400    1.55607700
 H                 -1.37832900    8.98774400    1.68449400
 C                  0.46501200    8.81204800    2.83223500
 H                  1.51764500    9.12692600    2.72317900
 H                  0.03786400    9.30418400    3.70954200
 O                  0.35904800    7.39719900    3.06519700
 H                  0.72604400    6.85018600    2.31929500
 C                 -0.20545200   10.77240300    1.39164700
 O                  0.53225300   11.35870000    0.58565500
 O                 -0.98413900   11.44412100    2.31631800

 1 2 1.0 4 1.0
 2
 3 85 1.0
 4 5 1.0 6 1.0 14 1.0
 5
 6 7 1.0 8 1.0 9 1.0
 7
 8
 9 10 2.0 11 1.5
 10
 11 12 1.0 13 1.0
 12
 13
 14 15 2.0 16 1.5
 15
 16 17 1.0 18 1.0
 17
 18 19 1.0 20 1.0 33 1.0
 19
 20 21 1.0 22 1.0 23 1.0
 21
 22
 23 24 1.0 25 1.0 29 1.0
 24
 25 26 1.0 27 1.0 28 1.0
 26
 27
 28
 29 30 1.0 31 1.0 32 1.0
 30
 31
 32
 33 34 2.0 35 1.5
 34
 35 36 1.0 37 1.0
 36
 37 38 1.0 39 1.0 54 1.0
 38
 39 40 1.0 41 1.0 42 1.0
 40
 41
 42 43 1.5 45 1.5
 43 44 1.0 47 1.5
 44
 45 46 1.0 49 1.5
 46
 47 48 1.0 51 1.5
 48
 49 50 1.0 51 1.5
 50
 51 52 1.0
 52 53 1.0
 53
 54 55 2.0 56 1.5
 55
 56 57 1.0 58 1.0
 57
 58 59 1.0 60 1.0 73 1.0
 59
 60 61 1.0 62 1.0 65 1.0
 61
 62 63 1.0 64 1.0 69 1.0
 63
 64
 65 66 1.0 67 1.0 68 1.0
 66
 67
 68
 69 70 1.0 71 1.0 72 1.0
 70
 71
 72
 73 74 2.0 75 1.5
 74
 75 76 1.0 77 1.0
 76
 77 78 1.0 79 1.0 91 1.0
 78
 79 80 1.0 81 1.0 82 1.0
 80
 81
 82 83 1.0 84 1.0 85 1.0
 83
 84
 85 86 1.0 88 1.0
 86
 87
 88 89 1.0 90 1.0
 89
 90
 91 92 2.0 93 1.5
 92
 93 94 1.0 95 1.0
 94
 95 96 1.0 97 1.0 115 1.0
 96
 97 98 1.0 99 1.0 100 1.0
 98
 99
 100 101 1.5 103 1.0
 101 102 1.0 104 1.0
 102
 103 106 1.5 107 1.5
 104 105 1.0 106 1.0
 105
 106 109 1.5
 107 108 1.0 111 1.5
 108
 109 110 1.0 113 1.5
 110
 111 112 1.0 113 1.5
 112
 113 114 1.0
 114
 115 116 2.0 117 1.5
 116
 117 118 1.0 119 1.0
 118
 119 120 1.0 121 1.0 134 1.0
 120
 121 122 1.0 123 1.0 124 1.0
 122
 123
 124 125 1.0 126 1.0 130 1.0
 125
 126 127 1.0 128 1.0 129 1.0
 127
 128
 129
 130 131 1.0 132 1.0 133 1.0
 131
 132
 133
 134 135 2.0 136 1.5
 135
 136 137 1.0 138 1.0
 137
 138 139 1.0 140 1.0 155 1.0
 139
 140 141 1.0 142 1.0 143 1.0
 141
 142
 143 144 1.0 145 1.0 146 1.0
 144
 145
 146 147 1.0 148 1.0 149 1.0
 147
 148
 149 150 1.0 151 1.0 152 1.0
 150
 151
 152 153 1.0 154 1.0
 153
 154
 155 156 2.0 157 1.0
 156
 157 158 1.0 159 1.0
 158
 159 160 1.0 161 1.0 167 1.0
 160
 161 162 1.0 163 1.0 164 1.0
 162
 163
 164 165 2.0 166 1.0
 165
 166
 167 168 2.0 169 1.5
 168
 169 170 1.0 171 1.0
 170
 171 172 1.0 173 1.0 174 1.0
 172
 173
 174 175 2.0 176 1.5
 175
 176 177 1.0 178 1.0
 177
 178 179 1.0 180 1.0 181 1.0
 179
 180
 181 182 2.0 183 1.5
 182
 183 184 1.0 192 1.0
 184 185 1.0 186 1.0 195 1.0
 185
 186 187 1.0 188 1.0 189 1.0
 187
 188
 189 190 1.0 191 1.0 192 1.0
 190
 191
 192 193 1.0 194 1.0
 193
 194
 195 196 2.0 197 1.5
 196
 197 198 1.0 199 1.0
 198
 199 200 1.0 201 1.0 206 1.0
 200
 201 202 1.0 203 1.0 204 1.0
 202
 203
 204 205 1.0
 205
 206 207 2.0 208 1.5
 207
 208 209 1.0 210 1.0
 209
 210 211 1.0 212 1.0 217 1.0
 211
 212 213 1.0 214 1.0 215 1.0
 213
 214
 215 216 1.0
 216
 217 218 2.0 219 1.5
 218
 219 220 1.0 221 1.0
 220
 221 222 1.0 223 1.0 224 1.0
 222
 223
 224 225 2.0 226 1.5
 225
 226 227 1.0 228 1.0
 227
 228 229 1.0 230 1.0 248 1.0
 229
 230 231 1.0 232 1.0 233 1.0
 231
 232
 233 234 1.0 235 1.0 236 1.0
 234
 235
 236 237 1.0 238 1.0 239 1.0
 237
 238
 239 240 1.0 241 1.5
 240
 241 242 1.5 245 1.5
 242 243 1.0 244 1.0
 243
 244
 245 246 1.0 247 1.0
 246
 247
 248 249 2.0 250 1.5
 249
 250 251 1.0 259 1.0
 251 252 1.0 253 1.0 262 1.0
 252
 253 254 1.0 255 1.0 256 1.0
 254
 255
 256 257 1.0 258 1.0 259 1.0
 257
 258
 259 260 1.0 261 1.0
 260
 261
 262 263 2.0 264 1.5
 263
 264 265 1.0 273 1.0
 265 266 1.0 267 1.0 276 1.0
 266
 267 268 1.0 269 1.0 270 1.0
 268
 269
 270 271 1.0 272 1.0 273 1.0
 271
 272
 273 274 1.0 275 1.0
 274
 275
 276 277 2.0 278 1.5
 277
 278 279 1.0 287 1.0
 279 280 1.0 281 1.0 290 1.0
 280
 281 282 1.0 283 1.0 284 1.0
 282
 283
 284 285 1.0 286 1.0 287 1.0
 285
 286
 287 288 1.0 289 1.0
 288
 289
 290 291 2.0 292 1.5
 291
 292 293 1.0 294 1.0
 293
 294 295 1.0 296 1.0 301 1.0
 295
 296 297 1.0 298 1.0 299 1.0
 297
 298
 299 300 1.0
 300
 301 302 2.0 303 1.0
 302
 303







