%nprocshared=24
%mem=6GB
%chk=asn.chk
#p b3lyp/6-31+g(d,p) geom=connectivity pop=nbo

Title Card Required

0 1
 N                  5.57237800    7.32775600    6.36274500
 H                  5.25181700    8.11161800    5.79673500
 H                  4.72480200    6.90568600    6.74298000
 C                  6.26943900    6.36202400    5.52078400
 H                  7.02080300    6.88959200    4.91906800
 C                  7.03719500    5.35787800    6.40838000
 H                  7.56621500    5.94614100    7.16890000
 H                  6.33640400    4.70583000    6.94784400
 C                  8.06594700    4.52440600    5.64656600
 O                  8.49342900    4.84361600    4.54177000
 N                  8.49548100    3.39993500    6.29237200
 H                  8.19651700    3.16406800    7.22776600
 H                  9.24409600    2.86094300    5.87669500
 C                  5.36741700    5.60883700    4.54144900
 O                  4.15520300    5.69718000    4.54697400
 H                  5.88385600    4.95249200    3.81297300

 1 2 1.0 3 1.0 4 1.0
 2
 3
 4 5 1.0 6 1.0 14 1.0
 5
 6 7 1.0 8 1.0 9 1.0
 7
 8
 9 10 2.0 11 1.5
 10
 11 12 1.0 13 1.0
 12
 13
 14 15 2.0 16 1.0
 15
 16






