%nprocshared=24
%mem=40GB
%chk=NBOTRP_cage.chk
#p b3lyp/6-31+g(d,p) scf=(conver=6) pop=nbo

Generated by trjconv : Protein t= 928.30005

-2 1
 N            -8.90754        3.85183       -3.55221         
 H            -8.37654        4.61693       -3.97178          
 H            -7.77691        1.09185       -3.07197          
 C            -9.08511        4.12870       -2.15471          
 H            -9.22306        5.20757       -1.91602          
 C           -10.31770        3.37917       -1.60813          
 H           -11.16357        3.61605       -2.26116          
 H           -10.11884        2.30466       -1.70965          
 C           -10.62794        3.67692       -0.15716          
 O            -9.76813        3.82358        0.72016          
 N           -11.95627        3.77953        0.15848          
 H           -12.67757        3.64560       -0.53184          
 H           -12.21535        3.93279        1.12208          
 C            -7.84438        3.65156       -1.39916          
 O            -7.59831        2.44718       -1.17759          
 N            -6.94988        4.60900       -1.01580          
 H            -7.17705        5.56748       -1.24304          
 C            -5.59011        4.31838       -0.57483          
 H            -5.04824        3.79702       -1.37105          
 C            -4.88502        5.65656       -0.25567          
 H            -5.00550        6.30575       -1.13620          
 H            -5.42850        6.13785        0.56877          
 C            -3.38508        5.59097        0.09404          
 H            -3.25662        4.89112        0.92857          
 C            -2.53140        5.08564       -1.07956          
 H            -1.46987        5.08521       -0.80995          
 H            -2.79492        4.06416       -1.36769          
 H            -2.65078        5.73185       -1.95919          
 C            -2.90552        6.97667        0.55619          
 H            -3.47853        7.33228        1.42056          
 H            -1.84941        6.94907        0.84420          
 H            -3.01039        7.72002       -0.24477          
 C            -5.53777        3.36090        0.62765          
 O            -4.54769        2.63847        0.79446          
 N            -6.57199        3.39805        1.50456          
 H            -7.43519        3.84865        1.21044          
 C            -6.61516        2.50656        2.66267          
 H            -5.67821        2.61179        3.21584          
 C            -7.80303        2.94580        3.55993          
 H            -7.69608        4.02696        3.70979          
 H            -8.73502        2.80110        3.00250          
 C            -7.88137        2.26313        4.90746          
 C            -7.15864        2.75326        6.00590          
 H            -6.53483        3.63586        5.88339          
 C            -8.67685        1.12893        5.10624          
 H            -9.24466        0.72003        4.27514          
 C            -7.21537        2.13681        7.25508          
 H            -6.64960        2.51993        8.09830          
 C            -8.74645        0.49807        6.34989          
 H            -9.36582       -0.38785        6.47688          
 C            -8.01132        1.00132        7.42584          
 O            -8.04102        0.42535        8.67639          
 H            -8.56737       -0.38386        8.64395          
 C            -6.67799        1.00452        2.29592          
 O            -6.18633        0.16899        3.05303          
 N            -7.34167        0.69558        1.14844          
 H            -7.61881        1.45373        0.52631          
 C            -7.37817       -0.66172        0.61057          
 H            -7.16610       -1.34007        1.44019          
 C            -8.78404       -0.97862        0.02124          
 H            -9.03802       -0.15651       -0.66359          
 C            -9.83036       -1.00001        1.15660          
 H            -9.66746       -1.90017        1.76658          
 H            -9.65353       -0.14147        1.81413          
 C            -8.78615       -2.28725       -0.78518          
 H            -9.79640       -2.51808       -1.13759          
 H            -8.14351       -2.21968       -1.66675          
 H            -8.43913       -3.12787       -0.17285          
 C           -11.28737       -0.95718        0.67753          
 H           -11.97650       -0.93627        1.52992          
 H           -11.47589       -0.05979        0.07632          
 H           -11.54912       -1.82733        0.06636          
 C            -6.24872       -0.91937       -0.40954          
 O            -5.60954       -1.98401       -0.37931          
 N            -6.00656        0.04406       -1.32275          
 H            -6.55103        0.90545       -1.31046          
 C            -5.08756       -0.16668       -2.43913          
 H            -5.39710       -1.06348       -2.98412          
 C            -5.09632        1.05018       -3.39783          
 H            -5.19598        1.95760       -2.79023          
 H            -4.10991        1.10508       -3.87212          
 C            -6.15855        1.06209       -4.51774          
 H            -6.13262        2.05509       -4.97743          
 H            -5.87016        0.34584       -5.29951          
 C            -7.62711        0.78656       -4.11218          
 O            -8.53169        1.52537       -4.90991          
 H            -8.71503        2.40128       -4.41352          
 N            -7.87301       -0.65242       -4.18378          
 H            -8.86198       -0.81382       -4.00250          
 H            -7.69776       -0.99173       -5.13221          
 C            -3.65699       -0.45659       -1.97047          
 O            -2.92179       -1.18580       -2.65096          
 N            -3.23556        0.10834       -0.81379          
 H            -3.85234        0.73826       -0.30679          
 C            -1.88649       -0.12836       -0.30379          
 H            -1.16896        0.11577       -1.09420          
 C            -1.64898        0.78274        0.92267          
 H            -2.07398        1.76421        0.67721          
 H            -2.25369        0.41001        1.76065          
 C            -0.22058        0.95632        1.36845          
 C             0.95122        0.63029        0.72341          
 H             1.09928        0.11919       -0.21570          
 C             0.17061        1.56870        2.61467          
 N             2.04454        0.99837        1.48623          
 H             3.01433        0.79202        1.24442          
 C             1.59692        1.57101        2.65635          
 C            -0.54431        2.10593        3.70209          
 H            -1.63089        2.11815        3.69469          
 C             2.30427        2.08454        3.75236          
 H             3.39057        2.07348        3.77741          
 C             0.15783        2.61915        4.78926          
 H            -0.38597        3.03567        5.63256          
 C             1.56961        2.60748        4.81467          
 H             2.09294        3.01507        5.67526          
 C            -1.61845       -1.61225        0.01862          
 O            -0.45420       -2.01478        0.09671          
 N            -2.68264       -2.42667        0.22901          
 H            -3.63330       -2.08337        0.09491          
 C            -2.49763       -3.84781        0.48383          
 H            -1.54925       -3.97042        1.01056          
 C            -3.65606       -4.41113        1.33683          
 H            -4.58995       -4.29721        0.77232          
 H            -3.47486       -5.48554        1.45603          
 C            -3.83488       -3.75935        2.72279          
 H            -4.02995       -2.68926        2.57855          
 C            -5.06788       -4.36107        3.41619          
 H            -5.25470       -3.87016        4.37782          
 H            -5.96565       -4.24083        2.79996          
 H            -4.92807       -5.43394        3.60505          
 C            -2.59018       -3.90146        3.61231          
 H            -2.32250       -4.95684        3.75285          
 H            -1.72132       -3.38889        3.18686          
 H            -2.77309       -3.46626        4.60146          
 C            -2.37253       -4.70752       -0.79148          
 O            -1.98991       -5.88412       -0.70014          
 N            -2.75054       -4.15717       -1.96865          
 H            -2.96062       -3.16142       -2.01140          
 C            -3.10782       -4.98113       -3.12590          
 H            -3.71777       -5.81829       -2.76690          
 C            -3.95577       -4.12096       -4.08819          
 H            -4.74467       -3.66485       -3.47687          
 H            -3.34248       -3.29192       -4.45805          
 C            -4.61290       -4.88353       -5.24914          
 H            -3.86204       -5.15368       -6.00050          
 H            -5.01194       -5.83451       -4.87609          
 C            -5.76279       -4.09406       -5.89933          
 H            -6.23937       -4.72925       -6.66118          
 H            -6.53380       -3.87411       -5.14986          
 C            -5.34672       -2.77411       -6.55492          
 H            -4.90189       -2.10986       -5.80662          
 H            -4.56527       -2.97383       -7.30970          
 N            -6.52339       -2.08106       -7.10343          
 H            -6.26979       -1.18003       -7.50066          
 H            -6.95051       -2.62726       -7.84815          
 C            -1.92631       -5.67666       -3.82047          
 O            -2.13566       -6.67912       -4.50790          
 N            -0.68746       -5.14936       -3.63362          
 H            -0.56150       -4.30303       -3.08843          
 C             0.50694       -5.78893       -4.15933          
 H             0.15144       -6.60689       -4.79486          
 C             1.37169       -4.83064       -4.99709          
 H             2.03617       -5.39752       -5.65247          
 H             0.71423       -4.23305       -5.63900          
 C             2.23051       -3.88932       -4.13192          
 O             3.29850       -3.46706       -4.66908          
 O             1.82535       -3.64061       -2.96298          
 C             1.37315       -6.42403       -3.05359          
 O             2.53894       -6.77214       -3.29589          
 N             0.80498       -6.57421       -1.83360          
 H            -0.16137       -6.28609       -1.68543          
 C             1.56469       -6.96264       -0.66569          
 H             0.96918       -7.62967       -0.03776          
 H             2.45780       -7.50166       -0.99616          
 C             1.99492       -5.79674        0.23884          
 O             2.18629       -6.00611        1.45526          
 N             2.16230       -4.59350       -0.32238          
 H             1.98742       -4.44027       -1.32397          
 C             2.26943       -3.36941        0.46363          
 H             2.53732       -2.57070       -0.23411          
 H             1.28871       -3.11974        0.86331          
 C             3.34192       -3.40522        1.54276          
 O             4.50852       -3.77176        1.28754          
 N             3.00402       -2.99133        2.78610          
 C             4.02651       -2.92862        3.84910          
 H             4.79890       -2.20384        3.57476          
 C             3.23395       -2.46801        5.09552          
 H             2.87760       -3.34246        5.65178          
 H             3.86008       -1.87583        5.76693          
 C             2.04912       -1.68564        4.51232          
 H             1.20094       -1.62377        5.19904          
 H             2.34655       -0.66412        4.26186          
 C             1.69382       -2.45380        3.23393          
 H             1.24983       -1.80918        2.47544          
 H             1.00357       -3.28244        3.43594          
 C             4.75762       -4.25247        4.09418          
 O             5.95999       -4.26497        4.38826          
 N             4.00195       -5.37274        4.01642          
 H             3.05226       -5.31112        3.66154          
 C             4.53404       -6.71266        4.17904          
 H             5.19999       -6.72236        5.04890          
 C             3.37089       -7.70981        4.45171          
 H             3.70871       -8.70945        4.15131          
 H             3.17015       -7.72750        5.52683          
 O             2.14122       -7.34830        3.85375          
 H             2.20775       -7.20910        2.88783          
 C             5.45460       -7.18947        3.03593          
 O             6.04646       -8.26525        3.14847          
 N             5.60962       -6.35154        1.98167          
 H             5.01506       -5.52749        1.88240          
 C             6.57911       -6.58891        0.93134          
 H             7.17169       -7.45909        1.24224          
 C             5.80342       -6.94611       -0.35572          
 H             5.05099       -7.69241       -0.07580          
 H             5.28048       -6.06614       -0.73655          
 O             6.59376       -7.43806       -1.44470          
 H             7.07870       -8.22443       -1.16191          
 C             7.56928       -5.41348        0.77522          
 O             8.31649       -5.34467       -0.20681          
 N             7.59501       -4.51143        1.78639          
 H             6.98333       -4.63071        2.58954          
 C             8.59051       -3.45995        1.85358          
 H             8.74834       -3.20899        2.90645          
 H             9.53724       -3.82267        1.44557          
 C             8.31490       -2.14204        1.11589          
 O             9.25638       -1.35498        0.98151          
 N             7.06139       -1.89627        0.65246          
 H             6.31082       -2.56263        0.82685          
 C             6.80164       -0.73176       -0.19854          
 H             7.78788       -0.32690       -0.41667          
 C             6.14389       -1.14690       -1.53327          
 H             5.31680       -1.83817       -1.34057          
 H             5.70817       -0.26024       -2.00850          
 C             7.19302       -1.77119       -2.46210          
 H             7.92819       -1.00248       -2.73512          
 H             7.75342       -2.52780       -1.89943          
 C             6.65966       -2.35786       -3.77992          
 H             6.10214       -1.58834       -4.32170          
 H             7.50908       -2.64314       -4.41551          
 N             5.74602       -3.49289       -3.65686          
 H             4.74815       -3.36819       -3.98123          
 C             6.12561       -4.73827       -3.39206          
 N             7.40149       -5.04186       -3.02917          
 H             7.94227       -4.30131       -2.60808          
 H             7.51065       -5.91283       -2.51303          
 N             5.25743       -5.75205       -3.52594          
 H             4.28292       -5.59955       -3.76435          
 H             5.49280       -6.65438       -3.13507          
 C             5.96064        0.35221        0.50056          
 O             4.76770        0.13439        0.78281          
 N             6.56935        1.53573        0.73131          
 C             5.83633        2.71336        1.20137          
 H             4.99999        2.40000        1.82704          
 C             6.92040        3.49177        1.98149          
 H             6.69101        4.55495        2.07810          
 H             7.01693        3.05723        2.98300          
 C             8.19079        3.24999        1.14577          
 H             8.26104        4.00492        0.35927          
 H             9.09985        3.30777        1.75066          
 C             8.00829        1.84822        0.52536          
 H             8.62258        1.08809        1.01355          
 H             8.24232        1.86398       -0.54279          
 C             5.34959        3.54772       -0.00689          
 O             5.85390        3.38694       -1.12323          
 N             4.41980        4.50152        0.23791          
 C             4.13927        5.51209       -0.78451          
 H             3.97153        5.02017       -1.74390          
 C             2.87432        6.21590       -0.24284          
 H             2.78601        7.24432       -0.60214          
 H             1.98639        5.65665       -0.55957          
 C             3.05474        6.13784        1.28327          
 H             3.71789        6.93992        1.61739          
 H             2.10978        6.22172        1.82669          
 C             3.72592        4.77313        1.51277          
 H             2.98667        3.98915        1.71158          
 H             4.42812        4.80779        2.35013          
 C             5.31875        6.50626       -0.88075          
 O             6.06883        6.68871        0.08253          
 N             5.43704        7.19398       -2.04239          
 C             6.38995        8.29881       -2.16650          
 H             7.33330        8.02806       -1.68660          
 C             6.52036        8.45307       -3.69665          
 H             6.86526        9.44930       -3.98387          
 H             7.24342        7.71946       -4.07240          
 C             5.10330        8.12839       -4.20064          
 H             4.46098        9.00661       -4.09242          
 H             5.08304        7.81282       -5.24820          
 C             4.61843        7.01276       -3.25545          
 H             4.79679        6.01706       -3.68194          
 H             3.55097        7.11096       -3.03518          
 C             5.83518        9.59015       -1.51755          
 O             4.60489        9.73084       -1.35966          
 N             6.76159       10.50235       -1.22595          
 H             7.76876       10.34792       -1.37820          
 C             6.57187       11.90626       -0.84159          
 H             5.98268       12.41850       -1.61455          
 C             5.84902       12.09561        0.49540          
 H             6.30059       11.42403        1.24359          
 H             6.01185       13.12784        0.81188          
 O             4.43587       11.89568        0.42497          
 H             4.28328       11.11471       -0.14314          
 C             8.01933       12.55706       -0.83882          
 O             8.95651       11.77679       -1.17878          
 O             8.06048       13.76285       -0.51922          

 1 2 1.0 4 1.0
 2
 3 85 1.0
 4 5 1.0 6 1.0 14 1.0
 5
 6 7 1.0 8 1.0 9 1.0
 7
 8
 9 10 2.0 11 1.5
 10
 11 12 1.0 13 1.0
 12
 13
 14 15 2.0 16 1.5
 15
 16 17 1.0 18 1.0
 17
 18 19 1.0 20 1.0 33 1.0
 19
 20 21 1.0 22 1.0 23 1.0
 21
 22
 23 24 1.0 25 1.0 29 1.0
 24
 25 26 1.0 27 1.0 28 1.0
 26
 27
 28
 29 30 1.0 31 1.0 32 1.0
 30
 31
 32
 33 34 2.0 35 1.5
 34
 35 36 1.0 37 1.0
 36
 37 38 1.0 39 1.0 54 1.0
 38
 39 40 1.0 41 1.0 42 1.0
 40
 41
 42 43 1.5 45 1.5
 43 44 1.0 47 1.5
 44
 45 46 1.0 49 1.5
 46
 47 48 1.0 51 1.5
 48
 49 50 1.0 51 1.5
 50
 51 52 1.0
 52 53 1.0
 53
 54 55 2.0 56 1.5
 55
 56 57 1.0 58 1.0
 57
 58 59 1.0 60 1.0 73 1.0
 59
 60 61 1.0 62 1.0 65 1.0
 61
 62 63 1.0 64 1.0 69 1.0
 63
 64
 65 66 1.0 67 1.0 68 1.0
 66
 67
 68
 69 70 1.0 71 1.0 72 1.0
 70
 71
 72
 73 74 2.0 75 1.5
 74
 75 76 1.0 77 1.0
 76
 77 78 1.0 79 1.0 91 1.0
 78
 79 80 1.0 81 1.0 82 1.0
 80
 81
 82 83 1.0 84 1.0 85 1.0
 83
 84
 85 86 1.0 88 1.0
 86
 87
 88 89 1.0 90 1.0
 89
 90
 91 92 2.0 93 1.5
 92
 93 94 1.0 95 1.0
 94
 95 96 1.0 97 1.0 115 1.0
 96
 97 98 1.0 99 1.0 100 1.0
 98
 99
 100 101 1.5 103 1.0
 101 102 1.0 104 1.0
 102
 103 106 1.5 107 1.5
 104 105 1.0 106 1.0
 105
 106 109 1.5
 107 108 1.0 111 1.5
 108
 109 110 1.0 113 1.5
 110
 111 112 1.0 113 1.5
 112
 113 114 1.0
 114
 115 116 2.0 117 1.5
 116
 117 118 1.0 119 1.0
 118
 119 120 1.0 121 1.0 134 1.0
 120
 121 122 1.0 123 1.0 124 1.0
 122
 123
 124 125 1.0 126 1.0 130 1.0
 125
 126 127 1.0 128 1.0 129 1.0
 127
 128
 129
 130 131 1.0 132 1.0 133 1.0
 131
 132
 133
 134 135 2.0 136 1.5
 135
 136 137 1.0 138 1.0
 137
 138 139 1.0 140 1.0 155 1.0
 139
 140 141 1.0 142 1.0 143 1.0
 141
 142
 143 144 1.0 145 1.0 146 1.0
 144
 145
 146 147 1.0 148 1.0 149 1.0
 147
 148
 149 150 1.0 151 1.0 152 1.0
 150
 151
 152 153 1.0 154 1.0
 153
 154
 155 156 2.0 157 1.0
 156
 157 158 1.0 159 1.0
 158
 159 160 1.0 161 1.0 167 1.0
 160
 161 162 1.0 163 1.0 164 1.0
 162
 163
 164 165 2.0 166 1.0
 165
 166
 167 168 2.0 169 1.5
 168
 169 170 1.0 171 1.0
 170
 171 172 1.0 173 1.0 174 1.0
 172
 173
 174 175 2.0 176 1.5
 175
 176 177 1.0 178 1.0
 177
 178 179 1.0 180 1.0 181 1.0
 179
 180
 181 182 2.0 183 1.5
 182
 183 184 1.0 192 1.0
 184 185 1.0 186 1.0 195 1.0
 185
 186 187 1.0 188 1.0 189 1.0
 187
 188
 189 190 1.0 191 1.0 192 1.0
 190
 191
 192 193 1.0 194 1.0
 193
 194
 195 196 2.0 197 1.5
 196
 197 198 1.0 199 1.0
 198
 199 200 1.0 201 1.0 206 1.0
 200
 201 202 1.0 203 1.0 204 1.0
 202
 203
 204 205 1.0
 205
 206 207 2.0 208 1.5
 207
 208 209 1.0 210 1.0
 209
 210 211 1.0 212 1.0 217 1.0
 211
 212 213 1.0 214 1.0 215 1.0
 213
 214
 215 216 1.0
 216
 217 218 2.0 219 1.5
 218
 219 220 1.0 221 1.0
 220
 221 222 1.0 223 1.0 224 1.0
 222
 223
 224 225 2.0 226 1.5
 225
 226 227 1.0 228 1.0
 227
 228 229 1.0 230 1.0 248 1.0
 229
 230 231 1.0 232 1.0 233 1.0
 231
 232
 233 234 1.0 235 1.0 236 1.0
 234
 235
 236 237 1.0 238 1.0 239 1.0
 237
 238
 239 240 1.0 241 1.5
 240
 241 242 1.5 245 1.5
 242 243 1.0 244 1.0
 243
 244
 245 246 1.0 247 1.0
 246
 247
 248 249 2.0 250 1.5
 249
 250 251 1.0 259 1.0
 251 252 1.0 253 1.0 262 1.0
 252
 253 254 1.0 255 1.0 256 1.0
 254
 255
 256 257 1.0 258 1.0 259 1.0
 257
 258
 259 260 1.0 261 1.0
 260
 261
 262 263 2.0 264 1.5
 263
 264 265 1.0 273 1.0
 265 266 1.0 267 1.0 276 1.0
 266
 267 268 1.0 269 1.0 270 1.0
 268
 269
 270 271 1.0 272 1.0 273 1.0
 271
 272
 273 274 1.0 275 1.0
 274
 275
 276 277 2.0 278 1.5
 277
 278 279 1.0 287 1.0
 279 280 1.0 281 1.0 290 1.0
 280
 281 282 1.0 283 1.0 284 1.0
 282
 283
 284 285 1.0 286 1.0 287 1.0
 285
 286
 287 288 1.0 289 1.0
 288
 289
 290 291 2.0 292 1.5
 291
 292 293 1.0 294 1.0
 293
 294 295 1.0 296 1.0 301 1.0
 295
 296 297 1.0 298 1.0 299 1.0
 297
 298
 299 300 1.0
 300
 301 302 2.0 303 1.0
 302
 303







